64
Model[1]: Jmol 14.32.15  2022-01-22 18:44
C      -1.88680     -2.88980     -0.52600
C      -2.31770     -2.52920      0.64890
C      -1.85250     -1.44920      1.57880
C      -2.88560     -0.41800      1.92090
C      -3.05870      0.79650      1.48390
C      -2.28680      1.60150      0.48200
C      -2.91950      1.70460     -0.87320
C      -2.48800      1.34410     -2.04790
C      -1.20320      0.69590     -2.46810
C      -1.35540     -0.62770     -3.15540
C      -1.18340     -1.84250     -2.71880
C      -0.77050     -2.35510     -1.37180
C       0.48280     -3.17780     -1.36280
C       1.69970     -2.87760     -1.00920
C       2.28560     -1.60190     -0.48330
C       2.91920     -1.70550      0.87150
C       2.48860     -1.34460      2.04640
C       1.20440     -0.69590      2.46740
C       0.19900     -1.62030      3.08590
C      -1.01860     -1.92010      2.73210
C       1.35660      0.62750      3.15520
C       1.18320      1.84240      2.71930
C       0.77000      2.35530      1.37260
C      -0.48340      3.17760      1.36300
C      -1.70170      2.87750      1.00850
C       1.88670      2.89020      0.52730
C       2.31790      2.52950     -0.64740
C       1.85310      1.44960     -1.57770
C       1.01950      1.92080     -2.73140
C      -0.19780      1.62070     -3.08570
C       2.88570      0.41830     -1.92041
C       3.05770     -0.79700     -1.48490
C       0.85140      0.66600     -0.72490
C      -0.55310      0.31980     -1.13370
C      -0.35380     -1.08190     -0.63030
C      -0.85140     -0.66560      0.72540
C      -1.05080      0.73590      0.22160
C       0.35400      1.08210      0.63050
C       0.55340     -0.31960      1.13360
C       1.05020     -0.73590     -0.22200
H      -2.42290     -3.71870     -0.96430
H      -3.15320     -3.10680      1.01590
H      -3.61040     -0.73710      2.65510
H      -3.90310      1.31190      1.91720
H      -3.90120      2.15460     -0.87570
H      -3.17320      1.54650     -2.85780
H      -1.66010     -0.56260     -4.18950
H      -1.37070     -2.61250     -3.45260
H       0.35450     -4.19300     -1.70840
H       2.40800     -3.68640     -1.11220
H       3.90030     -2.15690      0.87360
H       3.17390     -1.54770      2.85600
H       0.54300     -2.12430      3.97690
H      -1.51160     -2.62870      3.38120
H       1.66200      0.56220      4.18900
H       1.36850      2.61220      3.45390
H      -0.35560      4.19220      1.71020
H      -2.40990      3.68650      1.11070
H       2.42540      3.71620      0.96760
H       3.15320      3.10740     -1.01450
H       1.51210      2.63110     -3.37880
H      -0.54110      2.12340     -3.97780
H       3.61090      0.73760     -2.65430
H       3.90090     -1.31310     -1.91970
