20
#As seen in https://doi.org/10.1021/jacs.5b07445
C       0.00000      1.26544      0.00000
C       0.00000      2.60314      0.00000
H       0.92021      3.17577      0.00000
H      -0.92021      3.17577      0.00000
C       1.20351      0.39104      0.00000
C       2.47573      0.80441      0.00000
H       3.30470      0.10620      0.00000
H       2.73598      1.85654      0.00000
C       0.74381     -1.02376      0.00000
C       1.53009     -2.10598      0.00000
H       1.12221     -3.11014      0.00000
H       2.61113     -2.02837      0.00000
C      -0.74381     -1.02376      0.00000
C      -1.53009     -2.10598      0.00000
H      -2.61113     -2.02837      0.00000
H      -1.12221     -3.11014      0.00000
C      -1.20351      0.39104      0.00000
C      -2.47573      0.80441      0.00000
H      -2.73598      1.85654      0.00000
H      -3.30470      0.10620      0.00000
